Version 4.1
SHEET 1 2388 680
WIRE 0 16 -32 16
WIRE 112 16 80 16
WIRE 160 16 112 16
WIRE 272 16 240 16
WIRE -32 64 -32 16
WIRE 448 128 448 96
WIRE 560 128 560 96
WIRE 112 144 112 16
WIRE 160 144 112 144
WIRE 272 160 272 16
WIRE 272 160 224 160
WIRE 288 160 272 160
WIRE 16 176 0 176
WIRE 160 176 16 176
WIRE 16 208 16 176
WIRE 448 240 448 208
WIRE 560 240 560 208
WIRE 16 320 16 288
FLAG 560 96 Vee
IOPIN 560 96 In
FLAG 448 96 Vcc
IOPIN 448 96 In
FLAG 192 128 Vcc
IOPIN 192 128 Out
FLAG 192 192 Vee
IOPIN 192 192 Out
FLAG 16 320 0
FLAG 448 240 0
FLAG 560 240 0
FLAG 288 160 Vs
IOPIN 288 160 Out
FLAG -32 64 0
FLAG 0 176 Ve
IOPIN 0 176 Out
SYMBOL OpAmps\\LM741 192 96 R0
SYMATTR InstName U1
SYMBOL voltage 16 192 R0
WINDOW 123 0 0 Left 0
WINDOW 39 0 0 Left 0
SYMATTR InstName Ve
SYMATTR Value SINE(0 {Ve} {frequency})
SYMBOL Misc\\battery 448 112 R0
SYMATTR InstName Vcc
SYMATTR Value 12
SYMBOL Misc\\battery 560 112 R0
SYMATTR InstName Vee
SYMATTR Value -12
SYMBOL res 96 0 R90
WINDOW 0 0 56 VBottom 2
WINDOW 3 32 56 VTop 2
SYMATTR InstName R1
SYMATTR Value 12k
SYMBOL res 256 0 R90
WINDOW 0 0 56 VBottom 2
WINDOW 3 32 56 VTop 2
SYMATTR InstName R2
SYMATTR Value {RB}
TEXT 424 328 Left 2 !.param Ve 0.5
TEXT 424 360 Left 2 !.step param Ve 0.5 1.5 0.5
TEXT -64 424 Left 2 !.meas tran Vs_pp PP V(Vs)
TEXT 424 392 Left 2 !.param frequency 400
TEXT -64 488 Left 2 !.tran 0 {stop_time} 0 1m
TEXT 424 424 Left 2 !.param stop_time 6/{frequency}
TEXT -64 456 Left 2 !.meas tran Ve_pp PP V(Ve)
TEXT 424 296 Left 2 !.lib LM741.lib
TEXT 424 456 Left 2 !.param RB 12k
TEXT 424 488 Left 2 !.step param RB list 12k 47k
TEXT -64 392 Left 2 !.meas RB_kohm param {RB}/1000
